Texas/Base_Texas_66GW.RAW
 0,    100.00, 33, 0, 1, 60.00       / January 30, 2020 17:58:30; Simulator Version 20; BuildDate 2019_10_21


50310,'South Texa~1', 345.0000,2,  34,   1,   1,1.01999998, -59.255593, 1.10000, 0.90000, 1.10000, 0.90000
50311,'Comanche P~1', 345.0000,2,  34,   1,   1,1.01999998, -66.917385, 1.10000, 0.90000, 1.10000, 0.90000
50312,'Oak Grove ~1', 345.0000,2,  34,   1,   1,1.01999998, -68.881611, 1.10000, 0.90000, 1.10000, 0.90000
50313,'Limestone   ', 345.0000,2,  34,   1,   1,1.01999998, -66.296808, 1.10000, 0.90000, 1.10000, 0.90000
50314,'Martin Lake ', 345.0000,2,  34,   1,   1,1.01999998, -61.961509, 1.10000, 0.90000, 1.10000, 0.90000
50315,'Cedar Bayou ', 345.0000,2,  34,   1,   1,1.01999998, -74.502385, 1.10000, 0.90000, 1.10000, 0.90000
50316,'Pirkey      ', 230.0000,2,  34,   1,   1,1.01999998, -61.704168, 1.10000, 0.90000, 1.10000, 0.90000
50317,'Oklaunion   ', 230.0000,2,  34,   1,   1,1.01999998, -62.787170, 1.10000, 0.90000, 1.10000, 0.90000
50318,'Sandow No 5 ', 345.0000,2,  34,   1,   1,1.01999998, -63.192125, 1.10000, 0.90000, 1.10000, 0.90000
50319,'Coleto Creek', 230.0000,2,  34,   1,   1,1.01999998, -58.193615, 1.10000, 0.90000, 1.10000, 0.90000
50320,'W A Parish  ', 345.0000,3,  34,   1,   1,1.01999998, -67.191788, 1.10000, 0.90000, 1.10000, 0.90000
50321,'Sabine Riv~1', 345.0000,2,  34,   1,   1,1.01999998, -70.818618, 1.10000, 0.90000, 1.10000, 0.90000
50322,'Big Brown   ', 345.0000,2,  34,   1,   1,1.01999998, -69.047468, 1.10000, 0.90000, 1.10000, 0.90000
50323,'Monticello  ', 345.0000,2,  34,   1,   1,1.01999998, -61.662272, 1.10000, 0.90000, 1.10000, 0.90000
50324,'Sandow No 4 ', 345.0000,2,  34,   1,   1,1.01990461, -63.203941, 1.10000, 0.90000, 1.10000, 0.90000
50325,'Tolk        ', 345.0000,2,  34,   1,   1,1.01999998, -53.824589, 1.10000, 0.90000, 1.10000, 0.90000
50326,'J K Spruce  ', 345.0000,2,  34,   1,   1,1.01999998, -64.317419, 1.10000, 0.90000, 1.10000, 0.90000
50327,'Welsh       ', 345.0000,2,  34,   1,   1,1.01999998, -60.789585, 1.10000, 0.90000, 1.10000, 0.90000
50328,'Fayette Po~1', 345.0000,2,  34,   1,   1,1.01999998, -68.111746, 1.10000, 0.90000, 1.10000, 0.90000
50329,'Gibbons Cr~1', 345.0000,2,  34,   1,   1,1.01752591, -70.959143, 1.10000, 0.90000, 1.10000, 0.90000
50330,'Clear Lake~1', 345.0000,2,  34,   1,   1,1.01501310, -75.465380, 1.10000, 0.90000, 1.10000, 0.90000
50331,'O W Sommers ', 345.0000,2,  34,   1,   1,1.02031457, -64.294292, 1.10000, 0.90000, 1.10000, 0.90000
50332,'Thomas C F~1', 230.0000,2,  34,   1,   1,1.01999998, -66.539279, 1.10000, 0.90000, 1.10000, 0.90000
50333,'J T Deely   ', 345.0000,2,  34,   1,   1,1.02024567, -64.299087, 1.10000, 0.90000, 1.10000, 0.90000
50334,'San Miguel  ', 230.0000,2,  34,   1,   1,1.01999998, -62.891392, 1.10000, 0.90000, 1.10000, 0.90000
50335,'Handley     ', 230.0000,2,  34,   1,   1,1.00759006, -77.821126, 1.10000, 0.90000, 1.10000, 0.90000
50336,'Lake Hubbard', 345.0000,2,  34,   1,   1,1.00310183, -76.879885, 1.10000, 0.90000, 1.10000, 0.90000
50337,'Harrington  ', 345.0000,2,  34,   1,   1,1.01999998, -55.648020, 1.10000, 0.90000, 1.10000, 0.90000
50338,'Ennis Powe~1', 138.0000,2,  34,   1,   1,0.99725264, -78.280484, 1.10000, 0.90000, 1.10000, 0.90000
50339,'Pattern Gu~1', 345.0000,2,  34,   1,   1,1.01999998, -54.735306, 1.10000, 0.90000, 1.10000, 0.90000
50340,'King Mount~1', 345.0000,2,  34,   1,   1,1.01999998, -57.192555, 1.10000, 0.90000, 1.10000, 0.90000
50341,'Lewis Creek ', 138.0000,2,  34,   1,   1,1.01999998, -73.702966, 1.10000, 0.90000, 1.10000, 0.90000
50342,'Magic Vall~1', 345.0000,2,  34,   1,   1,1.01999998, -57.519837, 1.10000, 0.90000, 1.10000, 0.90000
50343,'Pyron Wind~1', 345.0000,2,  34,   1,   1,1.01999998, -46.254693, 1.10000, 0.90000, 1.10000, 0.90000
50344,'Graham      ', 345.0000,2,  34,   1,   1,1.01999998, -61.979274, 1.10000, 0.90000, 1.10000, 0.90000
50345,'Jones       ', 345.0000,2,  34,   1,   1,1.01999998, -56.422779, 1.10000, 0.90000, 1.10000, 0.90000
50346,'Wolf Hollo~1', 345.0000,2,  34,   1,   1,1.01819694, -68.005919, 1.10000, 0.90000, 1.10000, 0.90000
50347,'Wise Count~1', 230.0000,2,  34,   1,   1,1.01999998, -70.107862, 1.10000, 0.90000, 1.10000, 0.90000
50348,'Hays Energ~1', 345.0000,2,  34,   1,   1,1.01999998, -64.274375, 1.10000, 0.90000, 1.10000, 0.90000
50349,'Sweetwater~4', 138.0000,2,  34,   1,   1,1.01999998, -43.355794, 1.10000, 0.90000, 1.10000, 0.90000
50350,'Sabine      ', 345.0000,2,  34,   1,   1,1.01999998, -71.023982, 1.10000, 0.90000, 1.10000, 0.90000
50351,'Trinidad (~1', 138.0000,2,  34,   1,   1,1.01815343, -71.619806, 1.10000, 0.90000, 1.10000, 0.90000
50352,'Buffalo Ga~1', 345.0000,1,  34,   1,   1,1.02057719, -47.049263, 1.10000, 0.90000, 1.10000, 0.90000
50353,'Channel En~1', 230.0000,2,  34,   1,   1,0.99450588, -76.580525, 1.10000, 0.90000, 1.10000, 0.90000
50354,'Horse Holl~1', 345.0000,2,  34,   1,   1,1.01999998, -47.665660, 1.10000, 0.90000, 1.10000, 0.90000
50355,'Baytown En~1', 345.0000,2,  34,   1,   1,1.01999998, -74.623901, 1.10000, 0.90000, 1.10000, 0.90000
50356,'Roscoe Win~1', 230.0000,2,  34,   1,   1,1.01999998, -46.959132, 1.10000, 0.90000, 1.10000, 0.90000
50357,'Pearsall    ', 138.0000,2,  34,   1,   1,1.01999998, -65.323513, 1.10000, 0.90000, 1.10000, 0.90000
50358,'Penascal W~1', 138.0000,2,  34,   1,   1,1.01999998, -53.213314, 1.10000, 0.90000, 1.10000, 0.90000
50359,'Penascal I~1', 230.0000,1,  34,   1,   1,1.01971066, -54.409499, 1.10000, 0.90000, 1.10000, 0.90000
50360,'EC&R Papal~2', 138.0000,2,  34,   1,   1,1.01999998, -54.919628, 1.10000, 0.90000, 1.10000, 0.90000
50361,'Brazos Val~1', 345.0000,2,  34,   1,   1,1.01937008, -67.234921, 1.10000, 0.90000, 1.10000, 0.90000
50362,'Mesquite W~1', 345.0000,2,  34,   1,   1,1.01999998, -53.969006, 1.10000, 0.90000, 1.10000, 0.90000
50363,'Post Oak W~1', 345.0000,2,  34,   1,   1,1.01703620, -51.761332, 1.10000, 0.90000, 1.10000, 0.90000
50364,'EC&R Panth~3', 345.0000,2,  34,   1,   1,1.01999998, -50.032946, 1.10000, 0.90000, 1.10000, 0.90000
50365,'Valley (TX) ', 345.0000,2,  34,   1,   1,1.01999998, -70.190152, 1.10000, 0.90000, 1.10000, 0.90000
50366,'Corpus Chr~2', 345.0000,2,  34,   1,   1,1.01999998, -54.651175, 1.10000, 0.90000, 1.10000, 0.90000
50367,'Cottonwood~1', 345.0000,2,  34,   1,   1,1.01999998, -69.821192, 1.10000, 0.90000, 1.10000, 0.90000
50368,'Sand Hill   ', 230.0000,2,  34,   1,   1,1.01999998, -67.750176, 1.10000, 0.90000, 1.10000, 0.90000
50369,'Inadale Wi~1', 138.0000,2,  34,   1,   1,1.01999998, -46.950171, 1.10000, 0.90000, 1.10000, 0.90000
50370,'Victoria    ', 138.0000,2,  34,   1,   1,1.01999998, -58.786953, 1.10000, 0.90000, 1.10000, 0.90000
50371,'Lost Pines~1', 345.0000,2,  34,   1,   1,1.01999998, -65.737962, 1.10000, 0.90000, 1.10000, 0.90000
50372,'Channelvie~1', 345.0000,2,  34,   1,   1,1.01999998, -75.268364, 1.10000, 0.90000, 1.10000, 0.90000
50373,'Nueces Bay  ', 345.0000,2,  34,   1,   1,1.01999998, -54.698310, 1.10000, 0.90000, 1.10000, 0.90000
50374,'Barney M D~1', 345.0000,2,  34,   1,   1,1.01999998, -53.749433, 1.10000, 0.90000, 1.10000, 0.90000
50375,'Rio Nogale~1', 345.0000,2,  34,   1,   1,1.01999998, -64.452192, 1.10000, 0.90000, 1.10000, 0.90000
50376,'Bastrop En~1', 345.0000,2,  34,   1,   1,1.01999998, -66.131046, 1.10000, 0.90000, 1.10000, 0.90000
50377,'Sam Bertron ', 345.0000,2,  34,   1,   1,1.01821089, -75.322513, 1.10000, 0.90000, 1.10000, 0.90000
50378,'Tenaska Fr~1', 345.0000,2,  34,   1,   1,1.01999998, -71.047751, 1.10000, 0.90000, 1.10000, 0.90000
50379,'Tenaska Ga~1', 345.0000,2,  34,   1,   1,1.01999998, -63.312602, 1.10000, 0.90000, 1.10000, 0.90000
50380,'Wilkes      ', 345.0000,2,  34,   1,   1,1.01999998, -60.907590, 1.10000, 0.90000, 1.10000, 0.90000
50381,'Deer Park ~1', 345.0000,2,  34,   1,   1,1.01740503, -75.173315, 1.10000, 0.90000, 1.10000, 0.90000
50382,'Freeport E~2', 230.0000,2,  34,   1,   1,1.00633645, -69.355052, 1.10000, 0.90000, 1.10000, 0.90000
50383,'Bull Creek~1', 345.0000,1,  34,   1,   1,1.02376044, -56.381644, 1.10000, 0.90000, 1.10000, 0.90000
50384,'EC&R Papal~1', 138.0000,2,  34,   1,   1,1.01167250, -57.537561, 1.10000, 0.90000, 1.10000, 0.90000
50385,'Cedar Bayo~1', 345.0000,2,  34,   1,   1,1.02010739, -74.493486, 1.10000, 0.90000, 1.10000, 0.90000
50386,'Johnson Co~1', 345.0000,2,  34,   1,   1,1.00829756, -70.449433, 1.10000, 0.90000, 1.10000, 0.90000
50387,'Stryker Cr~1', 345.0000,2,  34,   1,   1,1.01999998, -63.028453, 1.10000, 0.90000, 1.10000, 0.90000
50388,'Hidalgo En~1', 230.0000,2,  34,   1,   1,1.01999998, -58.218292, 1.10000, 0.90000, 1.10000, 0.90000
50389,'Odessa Ect~1', 345.0000,2,  34,   1,   1,1.01999998, -54.962297, 1.10000, 0.90000, 1.10000, 0.90000
50390,'Arthur Von~1', 345.0000,2,  34,   1,   1,1.01999998, -64.485442, 1.10000, 0.90000, 1.10000, 0.90000
50391,'Pasadena C~1', 345.0000,2,  34,   1,   1,0.99838948, -74.726183, 1.10000, 0.90000, 1.10000, 0.90000
50392,'Major Oak ~1', 138.0000,2,  34,   1,   1,1.01999998, -68.840131, 1.10000, 0.90000, 1.10000, 0.90000
50393,'Mustang St~1', 345.0000,2,  34,   1,   1,1.01999998, -54.493985, 1.10000, 0.90000, 1.10000, 0.90000
50394,'Frontera E~1', 138.0000,2,  34,   1,   1,1.01999998, -58.006242, 1.10000, 0.90000, 1.10000, 0.90000
50395,'Lamar Powe~1', 230.0000,2,  34,   1,   1,1.01999998, -60.720703, 1.10000, 0.90000, 1.10000, 0.90000
50396,'Guadalupe ~1', 345.0000,2,  34,   1,   1,1.01999998, -64.797349, 1.10000, 0.90000, 1.10000, 0.90000
50397,'Buffalo Ga~2', 345.0000,2,  34,   1,   1,1.01999998, -48.118881, 1.10000, 0.90000, 1.10000, 0.90000
50398,'Ingleside ~1', 230.0000,2,  34,   1,   1,1.01999998, -54.491621, 1.10000, 0.90000, 1.10000, 0.90000
50399,'Eastman Co~1', 345.0000,2,  34,   1,   1,1.01999998, -62.653291, 1.10000, 0.90000, 1.10000, 0.90000
50400,'Jack County ', 345.0000,2,  34,   1,   1,1.01999998, -69.031301, 1.10000, 0.90000, 1.10000, 0.90000
50401,'Harrison C~1', 345.0000,2,  34,   1,   1,1.01999998, -61.735642, 1.10000, 0.90000, 1.10000, 0.90000
50402,'Mustang St~2', 138.0000,2,  34,   1,   1,1.01999998, -54.630189, 1.10000, 0.90000, 1.10000, 0.90000
50403,'Forney Ene~1', 345.0000,2,  34,   1,   1,1.01999998, -76.885042, 1.10000, 0.90000, 1.10000, 0.90000
50404,'Turkey Tra~1', 138.0000,2,  34,   1,   1,1.01999998, -44.809825, 1.10000, 0.90000, 1.10000, 0.90000
50405,'Union Carb~1', 345.0000,1,  34,   1,   1,1.01725006, -59.240621, 1.10000, 0.90000, 1.10000, 0.90000
50406,'Green Powe~1', 345.0000,2,  34,   1,   1,1.01999998, -74.405663, 1.10000, 0.90000, 1.10000, 0.90000
50407,'Freestone ~1', 345.0000,2,  34,   1,   1,1.01999998, -69.667007, 1.10000, 0.90000, 1.10000, 0.90000
50408,'Gregory Po~1', 345.0000,2,  34,   1,   1,1.01999998, -54.178218, 1.10000, 0.90000, 1.10000, 0.90000
50409,'Hackberry ~1', 345.0000,2,  34,   1,   1,1.01999998, -56.633412, 1.10000, 0.90000, 1.10000, 0.90000
50410,'Lon C Hill  ', 138.0000,2,  34,   1,   1,1.01947069, -58.784426, 1.10000, 0.90000, 1.10000, 0.90000
50411,'Wildorado ~1', 345.0000,2,  34,   1,   1,1.01999998, -55.740498, 1.10000, 0.90000, 1.10000, 0.90000
50412,'Brazos Win~1', 138.0000,2,  34,   1,   1,1.01999998, -51.516213, 1.10000, 0.90000, 1.10000, 0.90000
50413,'Bosque Cou~1', 230.0000,2,  34,   1,   1,1.01999998, -68.011957, 1.10000, 0.90000, 1.10000, 0.90000
50414,'Hal C Weav~1', 138.0000,2,  34,   1,   1,0.99283642, -70.427590, 1.10000, 0.90000, 1.10000, 0.90000
50415,'Trent Wind~1', 230.0000,1,  34,   1,   1,1.02048624, -46.689250, 1.10000, 0.90000, 1.10000, 0.90000
50416,'McAdoo Win~1', 345.0000,1,  34,   1,   1,1.02326787, -56.223805, 1.10000, 0.90000, 1.10000, 0.90000
50417,'Sherbino I~1', 345.0000,1,  34,   1,   1,1.02684665, -59.061370, 1.10000, 0.90000, 1.10000, 0.90000
50418,'Langford W~1', 345.0000,2,  34,   1,   1,1.01999998, -57.054606, 1.10000, 0.90000, 1.10000, 0.90000
50419,'Cedro Hill~1', 138.0000,2,  34,   1,   1,1.01999998, -62.841135, 1.10000, 0.90000, 1.10000, 0.90000
50420,'Sweeny Cog~1', 230.0000,2,  34,   1,   1,1.01999998, -65.122275, 1.10000, 0.90000, 1.10000, 0.90000
50421,'EC&R Panth~1', 138.0000,2,  34,   1,   1,1.01999998, -53.312973, 1.10000, 0.90000, 1.10000, 0.90000
50422,'Sim Gideon  ', 345.0000,2,  34,   1,   1,1.01999235, -65.738904, 1.10000, 0.90000, 1.10000, 0.90000
50423,'Mountain C~1', 345.0000,2,  34,   1,   1,1.00285375, -78.022822, 1.10000, 0.90000, 1.10000, 0.90000
50424,'Sweetwater~3', 138.0000,2,  34,   1,   1,1.01999998, -44.036231, 1.10000, 0.90000, 1.10000, 0.90000
50425,'Laredo      ', 138.0000,2,  34,   1,   1,1.01999998, -65.313691, 1.10000, 0.90000, 1.10000, 0.90000
50426,'Scurry Cou~2', 138.0000,2,  34,   1,   1,1.01999998, -49.019861, 1.10000, 0.90000, 1.10000, 0.90000
50427,'Champion W~1', 138.0000,2,  34,   1,   1,1.01999998, -45.823005, 1.10000, 0.90000, 1.10000, 0.90000
50428,'Forest Cre~1', 138.0000,2,  34,   1,   1,1.01999998, -51.139091, 1.10000, 0.90000, 1.10000, 0.90000
50429,'Eagle Moun~1', 345.0000,2,  34,   1,   1,1.00544667, -74.264244, 1.10000, 0.90000, 1.10000, 0.90000
50430,'Elbow Cree~1', 138.0000,2,  34,   1,   1,1.01999998, -51.908960, 1.10000, 0.90000, 1.10000, 0.90000
50431,'Buffalo Ga~3', 345.0000,2,  34,   1,   1,1.01990044, -48.310959, 1.10000, 0.90000, 1.10000, 0.90000
50432,'Stanton Wi~1', 230.0000,1,  34,   1,   1,1.00615609, -54.856767, 1.10000, 0.90000, 1.10000, 0.90000
50433,'Scurry Cou~1', 138.0000,2,  34,   1,   1,1.01999998, -48.016865, 1.10000, 0.90000, 1.10000, 0.90000
50434,'Barton Cha~1', 345.0000,2,  34,   1,   1,1.01904917, -64.226543, 1.10000, 0.90000, 1.10000, 0.90000
50435,'Black Hawk~1', 138.0000,2,  34,   1,   1,1.00794256, -56.670930, 1.10000, 0.90000, 1.10000, 0.90000
50436,'EC&R Panth~2', 138.0000,2,  34,   1,   1,1.01999998, -51.455165, 1.10000, 0.90000, 1.10000, 0.90000
50437,'Callahan D~1', 345.0000,2,  34,   1,   1,1.01999998, -48.290875, 1.10000, 0.90000, 1.10000, 0.90000
50438,'Noble Grea~1', 138.0000,2,  34,   1,   1,1.01999998, -47.070891, 1.10000, 0.90000, 1.10000, 0.90000
50439,'Nichols     ', 345.0000,2,  34,   1,   1,1.01999998, -55.703085, 1.10000, 0.90000, 1.10000, 0.90000
50440,'Motiva Ent~1', 230.0000,2,  34,   1,   1,1.01875818, -72.130213, 1.10000, 0.90000, 1.10000, 0.90000
50441,'Capricorn ~1', 345.0000,2,  34,   1,   1,1.01999998, -49.183680, 1.10000, 0.90000, 1.10000, 0.90000
50442,'Texas City~2', 345.0000,2,  34,   1,   1,1.01986670, -74.413040, 1.10000, 0.90000, 1.10000, 0.90000
50443,'Victoria T~1', 138.0000,2,  34,   1,   1,1.01961458, -60.194963, 1.10000, 0.90000, 1.10000, 0.90000
50444,'Newgulf Co~1', 138.0000,2,  34,   1,   1,1.01256299, -66.936878, 1.10000, 0.90000, 1.10000, 0.90000
50445,'Air Produc~1', 345.0000,1,  34,   1,   1,1.01329386, -72.348547, 1.10000, 0.90000, 1.10000, 0.90000
50446,'South Tren~1', 345.0000,1,  34,   1,   1,1.01948941, -47.923063, 1.10000, 0.90000, 1.10000, 0.90000
50447,'TXU Sweetw~1', 138.0000,2,  34,   1,   1,1.01999998, -46.234141, 1.10000, 0.90000, 1.10000, 0.90000
50448,'Oyster Cre~1', 345.0000,2,  34,   1,   1,1.00271297, -69.352252, 1.10000, 0.90000, 1.10000, 0.90000
50449,'Freeport E~1', 345.0000,2,  34,   1,   1,1.01999998, -68.213960, 1.10000, 0.90000, 1.10000, 0.90000
50450,'Sweetwater~2', 138.0000,2,  34,   1,   1,1.01999998, -45.622173, 1.10000, 0.90000, 1.10000, 0.90000
50451,'Sand Bluff~1', 138.0000,2,  34,   1,   1,1.01999998, -51.340572, 1.10000, 0.90000, 1.10000, 0.90000
50452,'Morgan Creek', 345.0000,2,  34,   1,   1,1.01999998, -44.093847, 1.10000, 0.90000, 1.10000, 0.90000
50453,'Permian Ba~1', 345.0000,2,  34,   1,   1,1.01999998, -55.998867, 1.10000, 0.90000, 1.10000, 0.90000
50454,'DeCordova ~1', 345.0000,2,  34,   1,   1,1.01999998, -68.339266, 1.10000, 0.90000, 1.10000, 0.90000
50455,'San Jacint~2', 345.0000,2,  34,   1,   1,1.01559365, -75.189325, 1.10000, 0.90000, 1.10000, 0.90000
50456,'Paris Ener~1', 138.0000,2,  34,   1,   1,1.01999998, -63.151663, 1.10000, 0.90000, 1.10000, 0.90000
50457,'Hardin Cou~1', 138.0000,2,  34,   1,   1,1.01676834, -73.189807, 1.10000, 0.90000, 1.10000, 0.90000
50458,'Newman      ', 138.0000,2,  34,   1,   1,1.01999998, -70.367252, 1.10000, 0.90000, 1.10000, 0.90000
50459,'San Jacint~1', 138.0000,2,  34,   1,   1,1.00083578, -75.647419, 1.10000, 0.90000, 1.10000, 0.90000
50460,'Houston Ch~1', 230.0000,2,  34,   1,   1,1.01587343, -75.717660, 1.10000, 0.90000, 1.10000, 0.90000
50461,'Optim Ener~1', 345.0000,2,  34,   1,   1,1.01999998, -75.316298, 1.10000, 0.90000, 1.10000, 0.90000
50462,'Post Wind ~1', 138.0000,2,  34,   1,   1,1.01999998, -51.900313, 1.10000, 0.90000, 1.10000, 0.90000
50463,'Ray Olinger ', 345.0000,2,  34,   1,   1,0.99713874, -75.507898, 1.10000, 0.90000, 1.10000, 0.90000
50464,'NWP Indian~1', 138.0000,2,  34,   1,   1,1.01999998, -58.155045, 1.10000, 0.90000, 1.10000, 0.90000
50465,'BASF Freep~1', 345.0000,1,  34,   1,   1,1.00940847, -68.561323, 1.10000, 0.90000, 1.10000, 0.90000
50466,'Copper      ', 138.0000,1,  34,   1,   1,0.99787509, -73.778406, 1.10000, 0.90000, 1.10000, 0.90000
50467,'Sweetwater~5', 138.0000,2,  34,   1,   1,1.01999998, -43.921081, 1.10000, 0.90000, 1.10000, 0.90000
50468,'Llano Esta~1', 138.0000,1,  34,   1,   1,1.00236058, -57.923153, 1.10000, 0.90000, 1.10000, 0.90000
50469,'EXC Wind 4~1', 138.0000,2,  34,   1,   1,1.01999998, -48.292774, 1.10000, 0.90000, 1.10000, 0.90000
50470,'Lake Creek  ', 230.0000,2,  34,   1,   1,1.01999998, -70.883731, 1.10000, 0.90000, 1.10000, 0.90000
50471,'Majestic 1~1', 138.0000,2,  34,   1,   1,1.01200461, -57.301100, 1.10000, 0.90000, 1.10000, 0.90000
50472,'Power Stat~1', 345.0000,2,  34,   1,   1,1.01999998, -74.391279, 1.10000, 0.90000, 1.10000, 0.90000
50473,'Woodward M~1', 138.0000,2,  34,   1,   1,1.01999998, -56.693289, 1.10000, 0.90000, 1.10000, 0.90000
50474,'C R Wing C~1', 138.0000,2,  34,   1,   1,1.01999998, -51.766919, 1.10000, 0.90000, 1.10000, 0.90000
50475,'Bayou Coge~1', 230.0000,2,  34,   1,   1,0.99862200, -76.885349, 1.10000, 0.90000, 1.10000, 0.90000
50476,'West Texas~1', 345.0000,2,  34,   1,   1,1.01999998, -57.272250, 1.10000, 0.90000, 1.10000, 0.90000
50477,'Quail Run ~1', 345.0000,2,  34,   1,   1,1.01999998, -54.929577, 1.10000, 0.90000, 1.10000, 0.90000
50478,'Loraine Wi~1', 138.0000,2,  34,   1,   1,1.01999998, -46.877098, 1.10000, 0.90000, 1.10000, 0.90000
50479,'Greens Bayou', 345.0000,2,  34,   1,   1,1.01978421, -75.505528, 1.10000, 0.90000, 1.10000, 0.90000
50480,'Goat Wind LP', 345.0000,1,  34,   1,   1,1.02022994, -49.622851, 1.10000, 0.90000, 1.10000, 0.90000
50481,'R W Miller  ', 345.0000,2,  34,   1,   1,1.01885235, -64.993054, 1.10000, 0.90000, 1.10000, 0.90000
50482,'Point Comf~1', 345.0000,1,  34,   1,   1,1.01539326, -59.631677, 1.10000, 0.90000, 1.10000, 0.90000
50483,'Snyder Win~1', 138.0000,2,  34,   1,   1,1.01408911, -50.140856, 1.10000, 0.90000, 1.10000, 0.90000
50484,'Spencer     ', 138.0000,1,  34,   1,   1,0.96203768, -81.781646, 1.10000, 0.90000, 1.10000, 0.90000
50485,'V H Braunig ', 345.0000,2,  34,   1,   1,1.02004361, -64.476132, 1.10000, 0.90000, 1.10000, 0.90000
50486,'EG178 Faci~1', 138.0000,2,  34,   1,   1,1.01999998, -48.911862, 1.10000, 0.90000, 1.10000, 0.90000
50487,'Winchester~1', 230.0000,1,  34,   1,   1,1.01704276, -67.829816, 1.10000, 0.90000, 1.10000, 0.90000
50488,'Silver Sta~1', 138.0000,2,  34,   1,   1,1.01999998, -62.078080, 1.10000, 0.90000, 1.10000, 0.90000
50489,'Notrees Wi~1', 345.0000,2,  34,   1,   1,0.98086613, -58.656927, 1.10000, 0.90000, 1.10000, 0.90000
50490,'Whirlwind ~1', 138.0000,1,  34,   1,   1,1.01407027, -59.536218, 1.10000, 0.90000, 1.10000, 0.90000
50491,'Exelon LaP~1', 345.0000,1,  34,   1,   1,1.01422739, -75.501259, 1.10000, 0.90000, 1.10000, 0.90000
50492,'Ocotillo W~1', 138.0000,2,  34,   1,   1,1.01999998, -51.908557, 1.10000, 0.90000, 1.10000, 0.90000
50493,'WestRock (~1', 138.0000,2,  34,   1,   1,1.01443183, -72.372964, 1.10000, 0.90000, 1.10000, 0.90000
50494,'Leon Creek  ', 138.0000,2,  34,   1,   1,0.99475706, -68.841811, 1.10000, 0.90000, 1.10000, 0.90000
50495,'Texas City~1', 138.0000,2,  34,   1,   1,0.99966323, -75.742420, 1.10000, 0.90000, 1.10000, 0.90000
50496,'Buchanan D~1', 138.0000,2,  34,   1,   1,0.99043787, -67.579524, 1.10000, 0.90000, 1.10000, 0.90000
50497,'T H Wharton ', 345.0000,2,  34,   1,   1,1.00379515, -73.877416, 1.10000, 0.90000, 1.10000, 0.90000
50498,'Ty Cooke    ', 138.0000,1,  34,   1,   1,0.99321926, -59.207085, 1.10000, 0.90000, 1.10000, 0.90000
50499,'Decker Creek', 345.0000,2,  34,   1,   1,1.01980162, -66.788069, 1.10000, 0.90000, 1.10000, 0.90000
50500,'Shell Deer~1', 138.0000,2,  34,   1,   1,1.00270724, -77.105773, 1.10000, 0.90000, 1.10000, 0.90000
50501,'Silas Ray   ', 138.0000,2,  34,   1,   1,1.01957524, -65.476406, 1.10000, 0.90000, 1.10000, 0.90000
50502,'Sunray Win~1', 345.0000,1,  34,   1,   1,1.01606929, -57.019625, 1.10000, 0.90000, 1.10000, 0.90000
50503,'Dansby      ', 138.0000,2,  34,   1,   1,1.01999998, -70.608720, 1.10000, 0.90000, 1.10000, 0.90000
50504,'Moore County',  69.0000,2,  34,   1,   1,1.01999998, -56.596915, 1.10000, 0.90000, 1.10000, 0.90000
50505,'Plant X     ', 345.0000,2,  34,   1,   1,1.01999998, -54.347337, 1.10000, 0.90000, 1.10000, 0.90000
50506,'TECO CHP-1  ',  69.0000,2,  34,   1,   1,0.96023858, -78.694352, 1.10000, 0.90000, 1.10000, 0.90000
50507,'Corpus Ref~1', 138.0000,1,  34,   1,   1,1.00091147, -57.238167, 1.10000, 0.90000, 1.10000, 0.90000
50508,'Ascend Per~1', 345.0000,1,  34,   1,   1,1.00122225, -72.870373, 1.10000, 0.90000, 1.10000, 0.90000
50509,'Ticona Pol~1', 230.0000,1,  34,   1,   1,1.00434673, -56.710965, 1.10000, 0.90000, 1.10000, 0.90000
...
0 / END OF BUS DATA, BEGIN LOAD DATA
50311,'1 ',1,  34,   1,     0.000,     0.000,     0.000,     0.000,     0.000,     0.000,   1,1, 0
50321,'1 ',1,  34,   1,     0.000,     0.000,     0.000,     0.000,     0.000,     0.000,   1,1, 0
50326,'1 ',1,  34,   1,     0.000,     0.000,     0.000,     0.000,     0.000,     0.000,   1,1, 0
50327,'1 ',1,  34,   1,     0.000,     0.000,     0.000,     0.000,     0.000,     0.000,   1,1, 0
50329,'1 ',1,  34,   1,     0.000,     0.000,     0.000,     0.000,     0.000,     0.000,   1,1, 0
50330,'1 ',1,  34,   1,     0.000,     0.000,     0.000,     0.000,     0.000,     0.000,   1,1, 0
50331,'1 ',1,  34,   1,     0.000,     0.000,     0.000,     0.000,     0.000,     0.000,   1,1, 0
50333,'1 ',1,  34,   1,     0.000,     0.000,     0.000,     0.000,     0.000,     0.000,   1,1, 0
50335,'1 ',1,  34,   1,     0.000,     0.000,     0.000,     0.000,     0.000,     0.000,   1,1, 0
50339,'1 ',1,  34,   1,     0.000,     0.000,     0.000,     0.000,     0.000,     0.000,   1,1, 0
50341,'1 ',1,  34,   1,     0.000,     0.000,     0.000,     0.000,     0.000,     0.000,   1,1, 0
50343,'1 ',1,  34,   1,     0.000,     0.000,     0.000,     0.000,     0.000,     0.000,   1,1, 0
50345,'1 ',1,  34,   1,     0.000,     0.000,     0.000,     0.000,     0.000,     0.000,   1,1, 0
50349,'1 ',1,  34,   1,     0.000,     0.000,     0.000,     0.000,     0.000,     0.000,   1,1, 0
50350,'1 ',1,  34,   1,     0.000,     0.000,     0.000,     0.000,     0.000,     0.000,   1,1, 0
50352,'1 ',1,  34,   1,     0.000,     0.000,     0.000,     0.000,     0.000,     0.000,   1,1, 0
50353,'1 ',1,  34,   1,     0.000,     0.000,     0.000,     0.000,     0.000,     0.000,   1,1, 0
50355,'1 ',1,  34,   1,     0.000,     0.000,     0.000,     0.000,     0.000,     0.000,   1,1, 0
50356,'1 ',1,  34,   1,     0.000,     0.000,     0.000,     0.000,     0.000,     0.000,   1,1, 0
50358,'1 ',1,  34,   1,     0.000,     0.000,     0.000,     0.000,     0.000,     0.000,   1,1, 0
50359,'1 ',1,  34,   1,     0.000,     0.000,     0.000,     0.000,     0.000,     0.000,   1,1, 0
50360,'1 ',1,  34,   1,     0.000,     0.000,     0.000,     0.000,     0.000,     0.000,   1,1, 0
50361,'1 ',1,  34,   1,     0.000,     0.000,     0.000,     0.000,     0.000,     0.000,   1,1, 0
50362,'1 ',1,  34,   1,     0.000,     0.000,     0.000,     0.000,     0.000,     0.000,   1,1, 0
50364,'1 ',1,  34,   1,     0.000,     0.000,     0.000,     0.000,     0.000,     0.000,   1,1, 0
50365,'1 ',1,  34,   1,     0.000,     0.000,     0.000,     0.000,     0.000,     0.000,   1,1, 0
50366,'1 ',1,  34,   1,     0.000,     0.000,     0.000,     0.000,     0.000,     0.000,   1,1, 0
50369,'1 ',1,  34,   1,     0.000,     0.000,     0.000,     0.000,     0.000,     0.000,   1,1, 0
50372,'1 ',1,  34,   1,     0.000,     0.000,     0.000,     0.000,     0.000,     0.000,   1,1, 0
50374,'1 ',1,  34,   1,     0.000,     0.000,     0.000,     0.000,     0.000,     0.000,   1,1, 0
50377,'1 ',1,  34,   1,     0.000,     0.000,     0.000,     0.000,     0.000,     0.000,   1,1, 0
50380,'1 ',1,  34,   1,     0.000,     0.000,     0.000,     0.000,     0.000,     0.000,   1,1, 0
50381,'1 ',1,  34,   1,     0.000,     0.000,     0.000,     0.000,     0.000,     0.000,   1,1, 0
50382,'1 ',1,  34,   1,     0.000,     0.000,     0.000,     0.000,     0.000,     0.000,   1,1, 0
50384,'1 ',1,  34,   1,     0.000,     0.000,     0.000,     0.000,     0.000,     0.000,   1,1, 0
50385,'1 ',1,  34,   1,     0.000,     0.000,     0.000,     0.000,     0.000,     0.000,   1,1, 0
50388,'1 ',1,  34,   1,     0.000,     0.000,     0.000,     0.000,     0.000,     0.000,   1,1, 0
50389,'1 ',1,  34,   1,     0.000,     0.000,     0.000,     0.000,     0.000,     0.000,   1,1, 0
50391,'1 ',1,  34,   1,     0.000,     0.000,     0.000,     0.000,     0.000,     0.000,   1,1, 0
50397,'1 ',1,  34,   1,     0.000,     0.000,     0.000,     0.000,     0.000,     0.000,   1,1, 0
50399,'1 ',1,  34,   1,     0.000,     0.000,     0.000,     0.000,     0.000,     0.000,   1,1, 0
50400,'1 ',1,  34,   1,     0.000,     0.000,     0.000,     0.000,     0.000,     0.000,   1,1, 0
50401,'1 ',1,  34,   1,     0.000,     0.000,     0.000,     0.000,     0.000,     0.000,   1,1, 0
50402,'1 ',1,  34,   1,     0.000,     0.000,     0.000,     0.000,     0.000,     0.000,   1,1, 0
50405,'1 ',1,  34,   1,     0.000,     0.000,     0.000,     0.000,     0.000,     0.000,   1,1, 0
50406,'1 ',1,  34,   1,     0.000,     0.000,     0.000,     0.000,     0.000,     0.000,   1,1, 0
50407,'1 ',1,  34,   1,     0.000,     0.000,     0.000,     0.000,     0.000,     0.000,   1,1, 0
50408,'1 ',1,  34,   1,     0.000,     0.000,     0.000,     0.000,     0.000,     0.000,   1,1, 0
50409,'1 ',1,  34,   1,     0.000,     0.000,     0.000,     0.000,     0.000,     0.000,   1,1, 0
50410,'1 ',1,  34,   1,     0.000,     0.000,     0.000,     0.000,     0.000,     0.000,   1,1, 0
50415,'1 ',1,  34,   1,     0.000,     0.000,     0.000,     0.000,     0.000,     0.000,   1,1, 0
50417,'1 ',1,  34,   1,     0.000,     0.000,     0.000,     0.000,     0.000,     0.000,   1,1, 0
50420,'1 ',1,  34,   1,     0.000,     0.000,     0.000,     0.000,     0.000,     0.000,   1,1, 0
50421,'1 ',1,  34,   1,     0.000,     0.000,     0.000,     0.000,     0.000,     0.000,   1,1, 0
50422,'1 ',1,  34,   1,     0.000,     0.000,     0.000,     0.000,     0.000,     0.000,   1,1, 0
50424,'1 ',1,  34,   1,     0.000,     0.000,     0.000,     0.000,     0.000,     0.000,   1,1, 0
50426,'1 ',1,  34,   1,     0.000,     0.000,     0.000,     0.000,     0.000,     0.000,   1,1, 0
50427,'1 ',1,  34,   1,     0.000,     0.000,     0.000,     0.000,     0.000,     0.000,   1,1, 0
50428,'1 ',1,  34,   1,     0.000,     0.000,     0.000,     0.000,     0.000,     0.000,   1,1, 0
50429,'1 ',1,  34,   1,     0.000,     0.000,     0.000,     0.000,     0.000,     0.000,   1,1, 0
50430,'1 ',1,  34,   1,     0.000,     0.000,     0.000,     0.000,     0.000,     0.000,   1,1, 0
50431,'1 ',1,  34,   1,     0.000,     0.000,     0.000,     0.000,     0.000,     0.000,   1,1, 0
50433,'1 ',1,  34,   1,     0.000,     0.000,     0.000,     0.000,     0.000,     0.000,   1,1, 0
50435,'1 ',1,  34,   1,     0.000,     0.000,     0.000,     0.000,     0.000,     0.000,   1,1, 0
50436,'1 ',1,  34,   1,     0.000,     0.000,     0.000,     0.000,     0.000,     0.000,   1,1, 0
50437,'1 ',1,  34,   1,     0.000,     0.000,     0.000,     0.000,     0.000,     0.000,   1,1, 0
50438,'1 ',1,  34,   1,     0.000,     0.000,     0.000,     0.000,     0.000,     0.000,   1,1, 0
50439,'1 ',1,  34,   1,     0.000,     0.000,     0.000,     0.000,     0.000,     0.000,   1,1, 0
50440,'1 ',1,  34,   1,     0.000,     0.000,     0.000,     0.000,     0.000,     0.000,   1,1, 0
50441,'1 ',1,  34,   1,     0.000,     0.000,     0.000,     0.000,     0.000,     0.000,   1,1, 0
50442,'1 ',1,  34,   1,     0.000,     0.000,     0.000,     0.000,     0.000,     0.000,   1,1, 0
50445,'1 ',1,  34,   1,     0.000,     0.000,     0.000,     0.000,     0.000,     0.000,   1,1, 0
50446,'1 ',1,  34,   1,     0.000,     0.000,     0.000,     0.000,     0.000,     0.000,   1,1, 0
50447,'1 ',1,  34,   1,     0.000,     0.000,     0.000,     0.000,     0.000,     0.000,   1,1, 0
50448,'1 ',1,  34,   1,     0.000,     0.000,     0.000,     0.000,     0.000,     0.000,   1,1, 0
50449,'1 ',1,  34,   1,     0.000,     0.000,     0.000,     0.000,     0.000,     0.000,   1,1, 0
50451,'1 ',1,  34,   1,     0.000,     0.000,     0.000,     0.000,     0.000,     0.000,   1,1, 0
50454,'1 ',1,  34,   1,     0.000,     0.000,     0.000,     0.000,     0.000,     0.000,   1,1, 0
50455,'1 ',1,  34,   1,     0.000,     0.000,     0.000,     0.000,     0.000,     0.000,   1,1, 0
50458,'1 ',1,  34,   1,     0.000,     0.000,     0.000,     0.000,     0.000,     0.000,   1,1, 0
50460,'1 ',1,  34,   1,     0.000,     0.000,     0.000,     0.000,     0.000,     0.000,   1,1, 0
50461,'1 ',1,  34,   1,     0.000,     0.000,     0.000,     0.000,     0.000,     0.000,   1,1, 0
50462,'1 ',1,  34,   1,     0.000,     0.000,     0.000,     0.000,     0.000,     0.000,   1,1, 0
50464,'1 ',1,  34,   1,     0.000,     0.000,     0.000,     0.000,     0.000,     0.000,   1,1, 0
50467,'1 ',1,  34,   1,     0.000,     0.000,     0.000,     0.000,     0.000,     0.000,   1,1, 0
50470,'1 ',1,  34,   1,     0.000,     0.000,     0.000,     0.000,     0.000,     0.000,   1,1, 0
50471,'1 ',1,  34,   1,     0.000,     0.000,     0.000,     0.000,     0.000,     0.000,   1,1, 0
50473,'1 ',1,  34,   1,     0.000,     0.000,     0.000,     0.000,     0.000,     0.000,   1,1, 0
50474,'1 ',1,  34,   1,     0.000,     0.000,     0.000,     0.000,     0.000,     0.000,   1,1, 0
50476,'1 ',1,  34,   1,     0.000,     0.000,     0.000,     0.000,     0.000,     0.000,   1,1, 0
50477,'1 ',1,  34,   1,     0.000,     0.000,     0.000,     0.000,     0.000,     0.000,   1,1, 0
50478,'1 ',1,  34,   1,     0.000,     0.000,     0.000,     0.000,     0.000,     0.000,   1,1, 0
50479,'1 ',1,  34,   1,     0.000,     0.000,     0.000,     0.000,     0.000,     0.000,   1,1, 0
50480,'1 ',1,  34,   1,     0.000,     0.000,     0.000,     0.000,     0.000,     0.000,   1,1, 0
50481,'1 ',1,  34,   1,     0.000,     0.000,     0.000,     0.000,     0.000,     0.000,   1,1, 0
50482,'1 ',1,  34,   1,     0.000,     0.000,     0.000,     0.000,     0.000,     0.000,   1,1, 0
50483,'1 ',1,  34,   1,     0.000,     0.000,     0.000,     0.000,     0.000,     0.000,   1,1, 0
50485,'1 ',1,  34,   1,     0.000,     0.000,     0.000,     0.000,     0.000,     0.000,   1,1, 0
50486,'1 ',1,  34,   1,     0.000,     0.000,     0.000,     0.000,     0.000,     0.000,   1,1, 0
50487,'1 ',1,  34,   1,     0.000,     0.000,     0.000,     0.000,     0.000,     0.000,   1,1, 0
50488,'1 ',1,  34,   1,     0.000,     0.000,     0.000,     0.000,     0.000,     0.000,   1,1, 0
50489,'1 ',1,  34,   1,     0.000,     0.000,     0.000,     0.000,     0.000,     0.000,   1,1, 0
50491,'1 ',1,  34,   1,     0.000,     0.000,     0.000,     0.000,     0.000,     0.000,   1,1, 0
50492,'1 ',1,  34,   1,     0.000,     0.000,     0.000,     0.000,     0.000,     0.000,   1,1, 0
50493,'1 ',1,  34,   1,     0.000,     0.000,     0.000,     0.000,     0.000,     0.000,   1,1, 0
50497,'1 ',1,  34,   1,     0.000,     0.000,     0.000,     0.000,     0.000,     0.000,   1,1, 0
50500,'1 ',1,  34,   1,     0.000,     0.000,     0.000,     0.000,     0.000,     0.000,   1,1, 0
50503,'1 ',1,  34,   1,     0.000,     0.000,     0.000,     0.000,     0.000,     0.000,   1,1, 0
50504,'1 ',1,  34,   1,     0.000,     0.000,     0.000,     0.000,     0.000,     0.000,   1,1, 0
50506,'1 ',1,  34,   1,     0.000,     0.000,     0.000,     0.000,     0.000,     0.000,   1,1, 0
50508,'1 ',1,  34,   1,     0.000,     0.000,     0.000,     0.000,     0.000,     0.000,   1,1, 0
50509,'1 ',1,  34,   1,     0.000,     0.000,     0.000,     0.000,     0.000,     0.000,   1,1, 0
50510,'1 ',1,  34,   1,     0.000,     0.000,     0.000,     0.000,     0.000,     0.000,   1,1, 0
50511,'1 ',1,  34,   1,     0.000,     0.000,     0.000,     0.000,     0.000,     0.000,   1,1, 0
50512,'1 ',1,  34,   1,     0.000,     0.000,     0.000,     0.000,     0.000,     0.000,   1,1, 0
50514,'1 ',1,  34,   1,     0.000,     0.000,     0.000,     0.000,     0.000,     0.000,   1,1, 0
50516,'1 ',1,  34,   1,     0.000,     0.000,     0.000,     0.000,     0.000,     0.000,   1,1, 0
50518,'1 ',1,  34,   1,     0.000,     0.000,     0.000,     0.000,     0.000,     0.000,   1,1, 0
50519,'1 ',1,  34,   1,     0.000,     0.000,     0.000,     0.000,     0.000,     0.000,   1,1, 0
50520,'1 ',1,  34,   1,     0.000,     0.000,     0.000,     0.000,     0.000,     0.000,   1,1, 0
50521,'1 ',1,  34,   1,     0.000,     0.000,     0.000,     0.000,     0.000,     0.000,   1,1, 0
50522,'1 ',1,  34,   1,     0.000,     0.000,     0.000,     0.000,     0.000,     0.000,   1,1, 0
50523,'1 ',1,  34,   1,     0.000,     0.000,     0.000,     0.000,     0.000,     0.000,   1,1, 0
50524,'1 ',1,  34,   1,     0.000,     0.000,     0.000,     0.000,     0.000,     0.000,   1,1, 0
50525,'1 ',1,  34,   1,     0.000,     0.000,     0.000,     0.000,     0.000,     0.000,   1,1, 0
50526,'1 ',1,  34,   1,     0.000,     0.000,     0.000,     0.000,     0.000,     0.000,   1,1, 0
50527,'1 ',1,  34,   1,     0.000,     0.000,     0.000,     0.000,     0.000,     0.000,   1,1, 0
50528,'1 ',1,  34,   1,     0.000,     0.000,     0.000,     0.000,     0.000,     0.000,   1,1, 0
50529,'1 ',1,  34,   1,     0.000,     0.000,     0.000,     0.000,     0.000,     0.000,   1,1, 0
50530,'1 ',1,  34,   1,     0.000,     0.000,     0.000,     0.000,     0.000,     0.000,   1,1, 0
50531,'1 ',1,  34,   1,     0.000,     0.000,     0.000,     0.000,     0.000,     0.000,   1,1, 0
50533,'1 ',1,  34,   1,     0.000,     0.000,     0.000,     0.000,     0.000,     0.000,   1,1, 0
50534,'1 ',1,  34,   1,     0.000,     0.000,     0.000,     0.000,     0.000,     0.000,   1,1, 0
50535,'1 ',1,  34,   1,     0.000,     0.000,     0.000,     0.000,     0.000,     0.000,   1,1, 0
50536,'1 ',1,  34,   1,     0.000,     0.000,     0.000,     0.000,     0.000,     0.000,   1,1, 0
50539,'1 ',1,  34,   1,     0.000,     0.000,     0.000,     0.000,     0.000,     0.000,   1,1, 0
50540,'1 ',1,  34,   1,     0.000,     0.000,     0.000,     0.000,     0.000,     0.000,   1,1, 0
50541,'1 ',1,  34,   1,     0.000,     0.000,     0.000,     0.000,     0.000,     0.000,   1,1, 0
50542,'1 ',1,  34,   1,     0.000,     0.000,     0.000,     0.000,     0.000,     0.000,   1,1, 0
50543,'1 ',1,  34,   1,     0.000,     0.000,     0.000,     0.000,     0.000,     0.000,   1,1, 0
50544,'1 ',1,  34,   1,     0.000,     0.000,     0.000,     0.000,     0.000,     0.000,   1,1, 0
50547,'1 ',1,  34,   1,     0.000,     0.000,     0.000,     0.000,     0.000,     0.000,   1,1, 0
50548,'1 ',1,  34,   1,     0.000,     0.000,     0.000,     0.000,     0.000,     0.000,   1,1, 0
53323,'1 ',1,  34,   1,     8.980,     0.000,     0.000,     0.000,     0.000,    -4.660,   1,1, 0
53324,'1 ',1,  34,   1,     6.020,     0.000,     0.000,     0.000,     0.000,    -3.890,   1,1, 0
53326,'1 ',1,  34,   1,     9.320,     0.000,     0.000,     0.000,     0.000,    -5.260,   1,1, 0
53327,'1 ',1,  34,   1,    14.740,     0.000,     0.000,     0.000,     0.000,    -5.600,   1,1, 0
53328,'1 ',1,  34,   1,     3.280,     0.000,     0.000,     0.000,     0.000,    -1.990,   1,1, 0
53330,'1 ',1,  34,   1,    15.170,     0.000,     0.000,     0.000,     0.000,    -7.940,   1,1, 0
53331,'1 ',1,  34,   1,     8.650,     0.000,     0.000,     0.000,     0.000,    -3.840,   1,1, 0
53332,'1 ',1,  34,   1,    17.590,     0.000,     0.000,     0.000,     0.000,    -4.400,   1,1, 0
53336,'1 ',1,  34,   1,     6.710,     0.000,     0.000,     0.000,     0.000,    -3.170,   1,1, 0
53337,'1 ',1,  34,   1,     4.490,     0.000,     0.000,     0.000,     0.000,    -2.700,   1,1, 0
53339,'1 ',1,  34,   1,     5.370,     0.000,     0.000,     0.000,     0.000,    -1.340,   1,1, 0
53340,'1 ',1,  34,   1,    26.580,     0.000,     0.000,     0.000,     0.000,    -6.640,   1,1, 0
53341,'1 ',1,  34,   1,     5.750,     0.000,     0.000,     0.000,     0.000,    -1.440,   1,1, 0
53342,'1 ',1,  34,   1,    10.920,     0.000,     0.000,     0.000,     0.000,    -2.730,   1,1, 0
53343,'1 ',1,  34,   1,    49.570,     0.000,     0.000,     0.000,     0.000,   -12.390,   1,1, 0
53344,'1 ',1,  34,   1,    33.940,     0.000,     0.000,     0.000,     0.000,    -8.490,   1,1, 0
53345,'1 ',1,  34,   1,    53.050,     0.000,     0.000,     0.000,     0.000,   -13.260,   1,1, 0
53346,'1 ',1,  34,   1,    18.220,     0.000,     0.000,     0.000,     0.000,    -4.550,   1,1, 0
53347,'1 ',1,  34,   1,    13.720,     0.000,     0.000,     0.000,     0.000,    -3.430,   1,1, 0
53348,'1 ',1,  34,   1,     7.270,     0.000,     0.000,     0.000,     0.000,    -1.820,   1,1, 0
53349,'1 ',1,  34,   1,     6.530,     0.000,     0.000,     0.000,     0.000,    -1.630,   1,1, 0
53351,'1 ',1,  34,   1,    27.080,     0.000,     0.000,     0.000,     0.000,    -6.770,   1,1, 0
53352,'1 ',1,  34,   1,    10.720,     0.000,     0.000,     0.000,     0.000,    -2.680,   1,1, 0
53353,'1 ',1,  34,   1,     4.520,     0.000,     0.000,     0.000,     0.000,    -1.130,   1,1, 0
53354,'1 ',1,  34,   1,     6.610,     0.000,     0.000,     0.000,     0.000,    -1.650,   1,1, 0
53355,'1 ',1,  34,   1,     7.770,     0.000,     0.000,     0.000,     0.000,    -4.650,   1,1, 0
53356,'1 ',1,  34,   1,     2.480,     0.000,     0.000,     0.000,     0.000,    -1.380,   1,1, 0
53358,'1 ',1,  34,   1,     3.870,     0.000,     0.000,     0.000,     0.000,    -2.400,   1,1, 0
53359,'1 ',1,  34,   1,    12.210,     0.000,     0.000,     0.000,     0.000,    -5.350,   1,1, 0
53360,'1 ',1,  34,   1,     5.640,     0.000,     0.000,     0.000,     0.000,    -1.410,   1,1, 0
53361,'1 ',1,  34,   1,     7.770,     0.000,     0.000,     0.000,     0.000,    -3.600,   1,1, 0
53362,'1 ',1,  34,   1,     9.600,     0.000,     0.000,     0.000,     0.000,    -5.490,   1,1, 0
53363,'1 ',1,  34,   1,     3.550,     0.000,     0.000,     0.000,     0.000,    -2.040,   1,1, 0
53364,'1 ',1,  34,   1,    11.860,     0.000,     0.000,     0.000,     0.000,    -6.670,   1,1, 0
53365,'1 ',1,  34,   1,     7.160,     0.000,     0.000,     0.000,     0.000,    -3.520,   1,1, 0
53367,'1 ',1,  34,   1,     4.870,     0.000,     0.000,     0.000,     0.000,    -2.390,   1,1, 0
53368,'1 ',1,  34,   1,     2.270,     0.000,     0.000,     0.000,     0.000,    -1.440,   1,1, 0
53370,'1 ',1,  34,   1,     4.320,     0.000,     0.000,     0.000,     0.000,    -2.510,   1,1, 0
53371,'1 ',1,  34,   1,     9.600,     0.000,     0.000,     0.000,     0.000,    -4.950,   1,1, 0
53372,'1 ',1,  34,   1,     4.050,     0.000,     0.000,     0.000,     0.000,    -2.120,   1,1, 0
53373,'1 ',1,  34,   1,    20.120,     0.000,     0.000,     0.000,     0.000,    -8.620,   1,1, 0
53375,'1 ',1,  34,   1,     4.750,     0.000,     0.000,     0.000,     0.000,    -2.900,   1,1, 0
53376,'1 ',1,  34,   1,     6.300,     0.000,     0.000,     0.000,     0.000,    -3.980,   1,1, 0
53378,'1 ',1,  34,   1,    20.540,     0.000,     0.000,     0.000,     0.000,   -10.480,   1,1, 0
53379,'1 ',1,  34,   1,     6.620,     0.000,     0.000,     0.000,     0.000,     0.000,   1,1, 0
53380,'1 ',1,  34,   1,     8.510,     0.000,     0.000,     0.000,     0.000,     0.000,   1,1, 0
53381,'1 ',1,  34,   1,     5.510,     0.000,     0.000,     0.000,     0.000,     0.000,   1,1, 0
53382,'1 ',1,  34,   1,     6.960,     0.000,     0.000,     0.000,     0.000,     0.000,   1,1, 0
53383,'1 ',1,  34,   1,     2.450,     0.000,     0.000,     0.000,     0.000,     0.000,   1,1, 0
53384,'1 ',1,  34,   1,    20.020,     0.000,     0.000,     0.000,     0.000,    -8.090,   1,1, 0
53388,'1 ',1,  34,   1,    15.330,     0.000,     0.000,     0.000,     0.000,    -8.100,   1,1, 0
53389,'1 ',1,  34,   1,     7.670,     0.000,     0.000,     0.000,     0.000,    -3.990,   1,1, 0
53390,'1 ',1,  34,   1,     6.460,     0.000,     0.000,     0.000,     0.000,    -3.310,   1,1, 0
53391,'1 ',1,  34,   1,     6.100,     0.000,     0.000,     0.000,     0.000,    -2.870,   1,1, 0
53392,'1 ',1,  34,   1,     7.110,     0.000,     0.000,     0.000,     0.000,    -4.440,   1,1, 0
53393,'1 ',1,  34,   1,     7.310,     0.000,     0.000,     0.000,     0.000,    -4.490,   1,1, 0
53395,'1 ',1,  34,   1,     4.480,     0.000,     0.000,     0.000,     0.000,    -1.120,   1,1, 0
...
0 / END OF LOAD DATA, BEGIN FIXED SHUNT DATA
0 / END OF FIXED SHUNT DATA, BEGIN GENERATOR DATA
50310,'1 ',  1354.300,    32.548,   655.900,  -451.400,1.02000,    0,   100.000,   0.00000,   1.00000,   0.00000,   0.00000,1.00000,1,  100.0,  1354.300,  1280.000,   1,1.0000,   0,1.0000,   0,1.0000,   0,1.0000,0, 1.0000
50310,'2 ',  1354.300,    32.548,   655.900,  -451.400,1.02000,    0,   100.000,   0.00000,   1.00000,   0.00000,   0.00000,1.00000,1,  100.0,  1354.300,  1280.000,   1,1.0000,   0,1.0000,   0,1.0000,   0,1.0000,0, 1.0000
50311,'1 ',  1184.100,    69.332,   588.500,  -405.000,1.02000,    0,   100.000,   0.00000,   1.00000,   0.00000,   0.00000,1.00000,1,  100.0,  1215.000,  1112.000,   1,1.0000,   0,1.0000,   0,1.0000,   0,1.0000,0, 1.0000
50311,'2 ',  1215.000,    69.332,   588.500,  -405.000,1.02000,    0,   100.000,   0.00000,   1.00000,   0.00000,   0.00000,1.00000,1,  100.0,  1215.000,  1103.000,   1,1.0000,   0,1.0000,   0,1.0000,   0,1.0000,0, 1.0000
50312,'1 ',   452.430,     2.751,   267.400,  -267.400,1.02000,    0,   100.000,   0.00000,   1.00000,   0.00000,   0.00000,1.00000,1,  100.0,   916.800,   348.000,   1,1.0000,   0,1.0000,   0,1.0000,   0,1.0000,0, 1.0000
50313,'1 ',   441.987,    -2.988,   324.100,  -324.100,1.02000,    0,   100.000,   0.00000,   1.00000,   0.00000,   0.00000,1.00000,1,  100.0,   893.000,   400.000,   1,1.0000,   0,1.0000,   0,1.0000,   0,1.0000,0, 1.0000
50313,'2 ',   472.170,    -2.988,   407.600,  -407.600,1.02000,    0,   100.000,   0.00000,   1.00000,   0.00000,   0.00000,1.00000,1,  100.0,   956.800,   400.000,   1,1.0000,   0,1.0000,   0,1.0000,   0,1.0000,0, 1.0000
50314,'1 ',   775.295,   -20.126,   260.700,  -260.700,1.02000,    0,   100.000,   0.00000,   1.00000,   0.00000,   0.00000,1.00000,1,  100.0,   793.200,   738.000,   1,1.0000,   0,1.0000,   0,1.0000,   0,1.0000,0, 1.0000
50314,'2 ',   750.538,   -22.819,   260.700,  -260.700,1.02000,    0,   100.000,   0.00000,   1.00000,   0.00000,   0.00000,1.00000,0,  100.0,   793.200,   738.000,   1,1.0000,   0,1.0000,   0,1.0000,   0,1.0000,0, 1.0000
50314,'3 ',   746.538,   -22.819,   260.700,  -260.700,1.02000,    0,   100.000,   0.00000,   1.00000,   0.00000,   0.00000,1.00000,0,  100.0,   793.200,   734.000,   1,1.0000,   0,1.0000,   0,1.0000,   0,1.0000,0, 1.0000
50315,'1 ',   377.519,    54.590,   370.500,  -255.000,1.02000,    0,   100.000,   0.00000,   1.00000,   0.00000,   0.00000,1.00000,1,  100.0,   765.000,    65.000,   1,1.0000,   0,1.0000,   0,1.0000,   0,1.0000,0, 1.0000
50315,'2 ',   377.519,    54.590,   370.500,  -255.000,1.02000,    0,   100.000,   0.00000,   1.00000,   0.00000,   0.00000,1.00000,1,  100.0,   765.000,    65.000,   1,1.0000,   0,1.0000,   0,1.0000,   0,1.0000,0, 1.0000
50316,'1 ',   433.900,   141.818,   349.200,  -240.300,1.02000,    0,   100.000,   0.00000,   1.00000,   0.00000,   0.00000,1.00000,1,  100.0,   721.000,   400.000,   1,1.0000,   0,1.0000,   0,1.0000,   0,1.0000,0, 1.0000
50317,'1 ',   248.853,    86.004,   348.700,  -240.000,1.02000,    0,   100.000,   0.00000,   1.00000,   0.00000,   0.00000,1.00000,1,  100.0,   720.000,   215.000,   1,1.0000,   0,1.0000,   0,1.0000,   0,1.0000,0, 1.0000
50318,'1 ',   511.102,    91.743,   320.400,  -220.500,1.02000,    0,   100.000,   0.00000,   1.00000,   0.00000,   0.00000,1.00000,1,  100.0,   661.500,   480.000,   1,1.0000,   0,1.0000,   0,1.0000,   0,1.0000,0, 1.0000
50319,'1 ',   379.265,    24.048,   301.400,  -207.500,1.02000,    0,   100.000,   0.00000,   1.00000,   0.00000,   0.00000,1.00000,1,  100.0,   622.400,   350.000,   1,1.0000,   0,1.0000,   0,1.0000,   0,1.0000,0, 1.0000
50320,'1 ',   187.665,   116.400,   116.400,   -62.600,1.02000,    0,   100.000,   0.00000,   1.00000,   0.00000,   0.00000,1.00000,1,  100.0,   187.800,    30.000,   1,1.0000,   0,1.0000,   0,1.0000,   0,1.0000,0, 1.0000
50320,'2 ',   187.665,   116.400,   116.400,   -62.600,1.02000,    0,   100.000,   0.00000,   1.00000,   0.00000,   0.00000,1.00000,1,  100.0,   187.800,    30.000,   1,1.0000,   0,1.0000,   0,1.0000,   0,1.0000,0, 1.0000
50320,'3 ',   580.365,   200.983,   281.100,  -193.500,1.02000,    0,   100.000,   0.00000,   1.00000,   0.00000,   0.00000,1.00000,1,  100.0,   580.500,    60.000,   1,1.0000,   0,1.0000,   0,1.0000,   0,1.0000,0, 1.0000
50320,'4 ',   733.965,   200.983,   355.500,  -244.700,1.02000,    0,   100.000,   0.00000,   1.00000,   0.00000,   0.00000,1.00000,1,  100.0,   734.100,   175.000,   1,1.0000,   0,1.0000,   0,1.0000,   0,1.0000,0, 1.0000
50320,'5 ',   733.965,   200.983,   355.500,  -244.700,1.02000,    0,   100.000,   0.00000,   1.00000,   0.00000,   0.00000,1.00000,1,  100.0,   734.100,   175.000,   1,1.0000,   0,1.0000,   0,1.0000,   0,1.0000,0, 1.0000
50320,'6 ',   299.065,   185.400,   185.400,   -99.700,1.02000,    0,   100.000,   0.00000,   1.00000,   0.00000,   0.00000,1.00000,1,  100.0,   299.200,    60.000,   1,1.0000,   0,1.0000,   0,1.0000,   0,1.0000,0, 1.0000
50320,'7 ',   614.465,   200.983,   348.300,  -204.900,1.02000,    0,   100.000,   0.00000,   1.00000,   0.00000,   0.00000,1.00000,1,  100.0,   614.600,   175.000,   1,1.0000,   0,1.0000,   0,1.0000,   0,1.0000,0, 1.0000
50320,'8 ',   653.865,   200.983,   370.600,  -218.000,1.02000,    0,   100.000,   0.00000,   1.00000,   0.00000,   0.00000,1.00000,1,  100.0,   654.000,   175.000,   1,1.0000,   0,1.0000,   0,1.0000,   0,1.0000,0, 1.0000
50321,'1 ',   170.381,    39.593,   177.950,  -100.200,1.02000,    0,   100.000,   0.00000,   1.00000,   0.00000,   0.00000,1.00000,1,  100.0,   300.550,   156.250,   1,1.0000,   0,1.0000,   0,1.0000,   0,1.0000,0, 1.0000
50321,'2 ',   170.381,    39.593,   177.950,  -100.200,1.02000,    0,   100.000,   0.00000,   1.00000,   0.00000,   0.00000,1.00000,1,  100.0,   300.550,   156.250,   1,1.0000,   0,1.0000,   0,1.0000,   0,1.0000,0, 1.0000
50322,'1 ',   297.901,     3.362,   287.400,  -197.800,1.02000,    0,   100.000,   0.00000,   1.00000,   0.00000,   0.00000,1.00000,1,  100.0,   593.400,   270.000,   1,1.0000,   0,1.0000,   0,1.0000,   0,1.0000,0, 1.0000
50322,'2 ',   297.901,     3.362,   287.400,  -197.800,1.02000,    0,   100.000,   0.00000,   1.00000,   0.00000,   0.00000,1.00000,1,  100.0,   593.400,   270.000,   1,1.0000,   0,1.0000,   0,1.0000,   0,1.0000,0, 1.0000
50323,'1 ',   753.295,    94.204,   260.700,  -260.700,1.02000,    0,   100.000,   0.00000,   1.00000,   0.00000,   0.00000,1.00000,1,  100.0,   793.200,   716.000,   1,1.0000,   0,1.0000,   0,1.0000,   0,1.0000,0, 1.0000
50323,'2 ',   549.901,    94.204,   252.800,  -252.800,1.02000,    0,   100.000,   0.00000,   1.00000,   0.00000,   0.00000,1.00000,1,  100.0,   593.400,   522.000,   1,1.0000,   0,1.0000,   0,1.0000,   0,1.0000,0, 1.0000
50323,'3 ',   549.901,    94.204,   252.800,  -252.800,1.02000,    0,   100.000,   0.00000,   1.00000,   0.00000,   0.00000,1.00000,1,  100.0,   593.400,   522.000,   1,1.0000,   0,1.0000,   0,1.0000,   0,1.0000,0, 1.0000
50324,'1 ',   567.769,    91.743,   214.400,  -214.400,1.02000,    0,   100.000,   0.00000,   1.00000,   0.00000,   0.00000,1.00000,1,  100.0,   590.600,   540.000,   1,1.0000,   0,1.0000,   0,1.0000,   0,1.0000,0, 1.0000
50325,'1 ',   211.702,     0.192,   275.000,  -189.300,1.02000,    0,   100.000,   0.00000,   1.00000,   0.00000,   0.00000,1.00000,1,  100.0,   567.900,   185.000,   1,1.0000,   0,1.0000,   0,1.0000,   0,1.0000,0, 1.0000
50325,'2 ',   211.702,     0.192,   275.000,  -189.300,1.02000,    0,   100.000,   0.00000,   1.00000,   0.00000,   0.00000,1.00000,1,  100.0,   567.900,   185.000,   1,1.0000,   0,1.0000,   0,1.0000,   0,1.0000,0, 1.0000
50326,'1 ',   356.693,   103.650,   425.200,  -292.700,1.02000,    0,   100.000,   0.00000,   1.00000,   0.00000,   0.00000,1.00000,1,  100.0,   878.000,   290.000,   1,1.0000,   0,1.0000,   0,1.0000,   0,1.0000,0, 1.0000
50326,'2 ',   279.314,   103.650,   274.100,  -188.700,1.02000,    0,   100.000,   0.00000,   1.00000,   0.00000,   0.00000,1.00000,1,  100.0,   566.000,   122.000,   1,1.0000,   0,1.0000,   0,1.0000,   0,1.0000,0, 1.0000
50327,'1 ',   275.367,    12.496,   270.300,  -186.000,1.02000,    0,   100.000,   0.00000,   1.00000,   0.00000,   0.00000,1.00000,1,  100.0,   558.000,   150.000,   1,1.0000,   0,1.0000,   0,1.0000,   0,1.0000,0, 1.0000
50327,'2 ',   275.367,    12.496,   270.300,  -186.000,1.02000,    0,   100.000,   0.00000,   1.00000,   0.00000,   0.00000,1.00000,1,  100.0,   558.000,   150.000,   1,1.0000,   0,1.0000,   0,1.0000,   0,1.0000,0, 1.0000
50327,'3 ',   275.367,    12.496,   270.300,  -186.000,1.02000,    0,   100.000,   0.00000,   1.00000,   0.00000,   0.00000,1.00000,1,  100.0,   558.000,   150.000,   1,1.0000,   0,1.0000,   0,1.0000,   0,1.0000,0, 1.0000
50328,'1 ',   227.004,    65.158,   222.800,  -153.300,1.02000,    0,   100.000,   0.00000,   1.00000,   0.00000,   0.00000,1.00000,1,  100.0,   460.000,   180.000,   1,1.0000,   0,1.0000,   0,1.0000,   0,1.0000,0, 1.0000
50328,'2 ',   303.495,    65.158,   297.900,  -205.000,1.02000,    0,   100.000,   0.00000,   1.00000,   0.00000,   0.00000,1.00000,1,  100.0,   615.000,   160.000,   1,1.0000,   0,1.0000,   0,1.0000,   0,1.0000,0, 1.0000
50328,'3 ',   303.495,    65.158,   297.900,  -205.000,1.02000,    0,   100.000,   0.00000,   1.00000,   0.00000,   0.00000,1.00000,1,  100.0,   615.000,   160.000,   1,1.0000,   0,1.0000,   0,1.0000,   0,1.0000,0, 1.0000
50329,'1 ',   223.797,   219.600,   219.600,  -151.200,1.02000,    0,   100.000,   0.00000,   1.00000,   0.00000,   0.00000,1.00000,1,  100.0,   453.500,   150.000,   1,1.0000,   0,1.0000,   0,1.0000,   0,1.0000,0, 1.0000
50330,'1 ',    25.612,    32.200,    32.200,   -17.300,1.02000,    0,   100.000,   0.00000,   1.00000,   0.00000,   0.00000,1.00000,1,  100.0,    51.900,     4.000,   1,1.0000,   0,1.0000,   0,1.0000,   0,1.0000,0, 1.0000
50330,'2 ',   136.054,   113.400,   113.400,   -75.550,1.02000,    0,   100.000,   0.00000,   1.00000,   0.00000,   0.00000,1.00000,1,  100.0,   226.600,   125.400,   1,1.0000,   0,1.0000,   0,1.0000,   0,1.0000,0, 1.0000
50330,'3 ',   136.054,   113.400,   113.400,   -75.550,1.02000,    0,   100.000,   0.00000,   1.00000,   0.00000,   0.00000,1.00000,1,  100.0,   226.600,   125.400,   1,1.0000,   0,1.0000,   0,1.0000,   0,1.0000,0, 1.0000
50330,'4 ',    87.065,    62.500,    62.500,   -43.000,1.02000,    0,   100.000,   0.00000,   1.00000,   0.00000,   0.00000,1.00000,1,  100.0,   129.000,    81.000,   1,1.0000,   0,1.0000,   0,1.0000,   0,1.0000,0, 1.0000
50330,'5 ',    87.065,    62.500,    62.500,   -43.000,1.02000,    0,   100.000,   0.00000,   1.00000,   0.00000,   0.00000,1.00000,1,  100.0,   129.000,    81.000,   1,1.0000,   0,1.0000,   0,1.0000,   0,1.0000,0, 1.0000
50330,'6 ',    87.065,    62.500,    62.500,   -43.000,1.02000,    0,   100.000,   0.00000,   1.00000,   0.00000,   0.00000,1.00000,1,  100.0,   129.000,    81.000,   1,1.0000,   0,1.0000,   0,1.0000,   0,1.0000,0, 1.0000
50331,'1 ',   220.096,   103.650,   216.000,  -148.700,1.02000,    0,   100.000,   0.00000,   1.00000,   0.00000,   0.00000,1.00000,1,  100.0,   446.000,    70.000,   1,1.0000,   0,1.0000,   0,1.0000,   0,1.0000,0, 1.0000
50331,'2 ',   220.096,   103.650,   216.000,  -148.700,1.02000,    0,   100.000,   0.00000,   1.00000,   0.00000,   0.00000,1.00000,1,  100.0,   446.000,    70.000,   1,1.0000,   0,1.0000,   0,1.0000,   0,1.0000,0, 1.0000
50332,'1 ',   220.096,   121.268,   216.000,  -148.700,1.02000,    0,   100.000,   0.00000,   1.00000,   0.00000,   0.00000,1.00000,1,  100.0,   446.000,    95.000,   1,1.0000,   0,1.0000,   0,1.0000,   0,1.0000,0, 1.0000
50333,'1 ',   220.096,   103.650,   216.000,  -148.700,1.02000,    0,   100.000,   0.00000,   1.00000,   0.00000,   0.00000,1.00000,1,  100.0,   446.000,   125.000,   1,1.0000,   0,1.0000,   0,1.0000,   0,1.0000,0, 1.0000
50333,'2 ',   239.835,   103.650,   235.400,  -162.000,1.02000,    0,   100.000,   0.00000,   1.00000,   0.00000,   0.00000,1.00000,1,  100.0,   486.000,   125.000,   1,1.0000,   0,1.0000,   0,1.0000,   0,1.0000,0, 1.0000
50334,'1 ',   269.278,    62.269,   198.600,  -136.700,1.02000,    0,   100.000,   0.00000,   1.00000,   0.00000,   0.00000,1.00000,1,  100.0,   410.000,   250.000,   1,1.0000,   0,1.0000,   0,1.0000,   0,1.0000,0, 1.0000
50335,'1 ',   141.394,   207.300,   207.300,  -207.300,1.02000,    0,   100.000,   0.00000,   1.00000,   0.00000,   0.00000,1.00000,1,  100.0,   455.000,   120.000,   1,1.0000,   0,1.0000,   0,1.0000,   0,1.0000,0, 1.0000
50335,'2 ',   141.394,   207.300,   207.300,  -207.300,1.02000,    0,   100.000,   0.00000,   1.00000,   0.00000,   0.00000,1.00000,1,  100.0,   455.000,   120.000,   1,1.0000,   0,1.0000,   0,1.0000,   0,1.0000,0, 1.0000
50335,'3 ',    69.033,   303.600,   303.600,  -134.900,1.02000,    0,   100.000,   0.00000,   1.00000,   0.00000,   0.00000,1.00000,1,  100.0,   404.800,    50.000,   1,1.0000,   0,1.0000,   0,1.0000,   0,1.0000,0, 1.0000
50336,'1 ',   488.967,   257.200,   257.200,  -177.000,1.02000,    0,   100.000,   0.00000,   1.00000,   0.00000,   0.00000,1.00000,1,  100.0,   531.000,   464.000,   1,1.0000,   0,1.0000,   0,1.0000,   0,1.0000,0, 1.0000
50336,'2 ',   371.643,   192.000,   192.000,  -132.200,1.02000,    0,   100.000,   0.00000,   1.00000,   0.00000,   0.00000,1.00000,1,  100.0,   396.500,   353.000,   1,1.0000,   0,1.0000,   0,1.0000,   0,1.0000,0, 1.0000
50337,'1 ',   179.927,    39.200,   174.400,  -120.000,1.02000,    0,   100.000,   0.00000,   1.00000,   0.00000,   0.00000,1.00000,1,  100.0,   360.000,   163.000,   1,1.0000,   0,1.0000,   0,1.0000,   0,1.0000,0, 1.0000
50337,'2 ',   179.927,    39.200,   174.400,  -120.000,1.02000,    0,   100.000,   0.00000,   1.00000,   0.00000,   0.00000,1.00000,1,  100.0,   360.000,   163.000,   1,1.0000,   0,1.0000,   0,1.0000,   0,1.0000,0, 1.0000
50337,'3 ',   179.927,    39.200,   174.400,  -120.000,1.02000,    0,   100.000,   0.00000,   1.00000,   0.00000,   0.00000,1.00000,1,  100.0,   360.000,   163.000,   1,1.0000,   0,1.0000,   0,1.0000,   0,1.0000,0, 1.0000
50338,'1 ',   225.111,   138.000,   138.000,   -95.000,1.02000,    0,   100.000,   0.00000,   1.00000,   0.00000,   0.00000,1.00000,1,  100.0,   285.000,   190.000,   1,1.0000,   0,1.0000,   0,1.0000,   0,1.0000,0, 1.0000
50338,'2 ',    93.367,    64.400,    64.400,   -44.300,1.02000,    0,   100.000,   0.00000,   1.00000,   0.00000,   0.00000,1.00000,1,  100.0,   133.000,    80.000,   1,1.0000,   0,1.0000,   0,1.0000,   0,1.0000,0, 1.0000
50339,'1 ',   283.200,    46.669,   137.200,   -94.400,1.02000,    0,   100.000,   0.00000,   1.00000,   0.00000,   0.00000,1.00000,1,  100.0,   283.200,   283.200,   1,1.0000,   0,1.0000,   0,1.0000,   0,1.0000,1, 1.0000
50340,'1 ',    14.100,    13.463,   134.600,   -92.700,1.02000,    0,   100.000,   0.00000,   1.00000,   0.00000,   0.00000,1.00000,1,  100.0,   278.000,    14.100,   1,1.0000,   0,1.0000,   0,1.0000,   0,1.0000,1, 1.0000
50341,'1 ',   133.933,   116.983,   153.800,   -90.500,1.02000,    0,   100.000,   0.00000,   1.00000,   0.00000,   0.00000,1.00000,1,  100.0,   271.400,    50.000,   1,1.0000,   0,1.0000,   0,1.0000,   0,1.0000,0, 1.0000
50341,'2 ',   133.933,   116.983,   153.800,   -90.500,1.02000,    0,   100.000,   0.00000,   1.00000,   0.00000,   0.00000,1.00000,1,  100.0,   271.400,    50.000,   1,1.0000,   0,1.0000,   0,1.0000,   0,1.0000,0, 1.0000
50342,'1 ',   182.554,    39.364,   165.500,   -89.000,1.02000,    0,   100.000,   0.00000,   1.00000,   0.00000,   0.00000,1.00000,1,  100.0,   267.000,   170.000,   1,1.0000,   0,1.0000,   0,1.0000,   0,1.0000,0, 1.0000
50342,'2 ',   147.554,    39.364,   165.500,   -89.000,1.02000,    0,   100.000,   0.00000,   1.00000,   0.00000,   0.00000,1.00000,1,  100.0,   267.000,   135.000,   1,1.0000,   0,1.0000,   0,1.0000,   0,1.0000,0, 1.0000
50342,'3 ',   147.554,    39.364,   165.500,   -89.000,1.02000,    0,   100.000,   0.00000,   1.00000,   0.00000,   0.00000,1.00000,1,  100.0,   267.000,   135.000,   1,1.0000,   0,1.0000,   0,1.0000,   0,1.0000,0, 1.0000
50343,'1 ',   249.000,   -42.507,   120.600,   -83.000,1.02000,    0,   100.000,   0.00000,   1.00000,   0.00000,   0.00000,1.00000,1,  100.0,   249.000,     0.000,   1,1.0000,   0,1.0000,   0,1.0000,   0,1.0000,1, 1.0000
50344,'1 ',   214.646,    34.706,   153.500,   -82.600,1.02000,    0,   100.000,   0.00000,   1.00000,   0.00000,   0.00000,1.00000,1,  100.0,   247.700,   203.000,   1,1.0000,   0,1.0000,   0,1.0000,   0,1.0000,0, 1.0000
50344,'2 ',   369.196,    34.706,   187.400,  -129.000,1.02000,    0,   100.000,   0.00000,   1.00000,   0.00000,   0.00000,1.00000,1,  100.0,   387.000,   351.000,   1,1.0000,   0,1.0000,   0,1.0000,   0,1.0000,0, 1.0000
50345,'1 ',    67.637,    41.386,   119.900,   -82.500,1.02000,    0,   100.000,   0.00000,   1.00000,   0.00000,   0.00000,1.00000,1,  100.0,   247.500,    56.000,   1,1.0000,   0,1.0000,   0,1.0000,   0,1.0000,0, 1.0000
50345,'2 ',    67.637,    41.386,   119.900,   -82.500,1.02000,    0,   100.000,   0.00000,   1.00000,   0.00000,   0.00000,1.00000,1,  100.0,   247.500,    56.000,   1,1.0000,   0,1.0000,   0,1.0000,   0,1.0000,0, 1.0000
50346,'1 ',   120.362,   118.100,   118.100,   -81.300,1.02000,    0,   100.000,   0.00000,   1.00000,   0.00000,   0.00000,1.00000,1,  100.0,   243.900,    84.000,   1,1.0000,   0,1.0000,   0,1.0000,   0,1.0000,0, 1.0000
50346,'2 ',   120.362,   118.100,   118.100,   -81.300,1.02000,    0,   100.000,   0.00000,   1.00000,   0.00000,   0.00000,1.00000,1,  100.0,   243.900,    84.000,   1,1.0000,   0,1.0000,   0,1.0000,   0,1.0000,0, 1.0000
50346,'3 ',   148.343,   145.600,   145.600,  -100.200,1.02000,    0,   100.000,   0.00000,   1.00000,   0.00000,   0.00000,1.00000,1,  100.0,   300.600,    84.000,   1,1.0000,   0,1.0000,   0,1.0000,   0,1.0000,0, 1.0000
50347,'1 ',   142.319,    69.305,   126.900,   -87.300,1.02000,    0,   100.000,   0.00000,   1.00000,   0.00000,   0.00000,1.00000,1,  100.0,   262.000,   130.000,   1,1.0000,   0,1.0000,   0,1.0000,   0,1.0000,0, 1.0000
50347,'2 ',    96.378,    69.305,   117.200,   -80.700,1.02000,    0,   100.000,   0.00000,   1.00000,   0.00000,   0.00000,1.00000,1,  100.0,   242.000,    85.000,   1,1.0000,   0,1.0000,   0,1.0000,   0,1.0000,0, 1.0000
50347,'3 ',    96.378,    69.305,   117.200,   -80.700,1.02000,    0,   100.000,   0.00000,   1.00000,   0.00000,   0.00000,1.00000,1,  100.0,   242.000,    85.000,   1,1.0000,   0,1.0000,   0,1.0000,   0,1.0000,0, 1.0000
...